  24
          0.00000000
 C          0.0000000000        0.0000000000        0.0000000000
 C          0.0000000000        0.0000000000        0.0000000000
 C          0.0000000000        0.0000000000        0.0000000000
 C          0.0000000000********************        0.0000000000
 C          0.0000000000        0.0000000000        0.0000000000
 C          0.0000000000        0.0000000000        0.0000000000
 H          0.0000000000        0.0000000000        0.0000000000
 H          0.0000000000        0.0000000000        0.0000000000
 H          0.0000000000        0.0000000000        0.0000000000
 H          0.0000000000        0.0000000000        0.0000000000
 H          0.0000000000        0.0000000000        0.0000000000
 H          0.0000000000        0.0000000000        0.0000000000
 C          0.0000000000        0.0000000000        0.0000000000
 C          0.0000000000        0.0000000000        0.0000000000
 C          0.0000000000        0.0000000000        0.0000000000
 C          0.0000000000        0.0000000000        0.0000000000
 C          0.0000000000        0.0000000000        0.0000000000
 C          0.0000000000        0.0000000000        0.0000000000
 H          0.0000000000        0.0000000000        0.0000000000
 H          0.0000000000        0.0000000000        0.0000000000
 H          0.0000000000        0.0000000000        0.0000000000
 H          0.0000000000        0.0000000000        0.0000000000
 H          0.0000000000        0.0000000000        0.0000000000
 H          0.0000000000        0.0000000000        0.0000000000
