 xtb: 6.5.1 (conda-forge)
          06162423183D

 24 24  0     0  0            999 V2000
    1.6317   -1.3673   -0.4500 C   0  0  0  0  0  0  0  0  0  0  0  0
    2.2075   -0.8683    0.7054 C   0  0  0  0  0  0  0  0  0  0  0  0
    2.3006    0.4994    0.8971 C   0  0  0  0  0  0  0  0  0  0  0  0
    1.8178    1.3674   -0.0668 C   0  0  0  0  0  0  0  0  0  0  0  0
    1.2417    0.8680   -1.2219 C   0  0  0  0  0  0  0  0  0  0  0  0
    1.1488   -0.4992   -1.4136 C   0  0  0  0  0  0  0  0  0  0  0  0
    1.5587   -2.4347   -0.5998 H   0  0  0  0  0  0  0  0  0  0  0  0
    2.5845   -1.5462    1.4577 H   0  0  0  0  0  0  0  0  0  0  0  0
    2.7498    0.8892    1.7993 H   0  0  0  0  0  0  0  0  0  0  0  0
    1.8898    2.4350    0.0827 H   0  0  0  0  0  0  0  0  0  0  0  0
    0.8632    1.5453   -1.9736 H   0  0  0  0  0  0  0  0  0  0  0  0
    0.6975   -0.8887   -2.3145 H   0  0  0  0  0  0  0  0  0  0  0  0
   -1.2579    0.8984    1.2019 C   0  0  0  0  0  0  0  0  0  0  0  0
   -1.1488   -0.4622    1.4290 C   0  0  0  0  0  0  0  0  0  0  0  0
   -1.6154   -1.3607    0.4854 C   0  0  0  0  0  0  0  0  0  0  0  0
   -2.1914   -0.8986   -0.6852 C   0  0  0  0  0  0  0  0  0  0  0  0
   -2.3007    0.4624   -0.9124 C   0  0  0  0  0  0  0  0  0  0  0  0
   -1.8339    1.3608    0.0313 C   0  0  0  0  0  0  0  0  0  0  0  0
   -0.8920    1.5994    1.9377 H   0  0  0  0  0  0  0  0  0  0  0  0
   -0.6974   -0.8228    2.3415 H   0  0  0  0  0  0  0  0  0  0  0  0
   -1.5294   -2.4229    0.6626 H   0  0  0  0  0  0  0  0  0  0  0  0
   -2.5556   -1.6003   -1.4218 H   0  0  0  0  0  0  0  0  0  0  0  0
   -2.7501    0.8232   -1.8265 H   0  0  0  0  0  0  0  0  0  0  0  0
   -1.9185    2.4232   -0.1458 H   0  0  0  0  0  0  0  0  0  0  0  0
  1  2  4  0  0  0  0
  2  3  4  0  0  0  0
  3  4  4  0  0  0  0
  4  5  4  0  0  0  0
  1  6  4  0  0  0  0
  5  6  4  0  0  0  0
  1  7  1  0  0  0  0
  2  8  1  0  0  0  0
  3  9  1  0  0  0  0
  4 10  1  0  0  0  0
  5 11  1  0  0  0  0
  6 12  1  0  0  0  0
 13 14  4  0  0  0  0
 14 15  4  0  0  0  0
 15 16  4  0  0  0  0
 16 17  4  0  0  0  0
 13 18  4  0  0  0  0
 17 18  4  0  0  0  0
 13 19  1  0  0  0  0
 14 20  1  0  0  0  0
 15 21  1  0  0  0  0
 16 22  1  0  0  0  0
 17 23  1  0  0  0  0
 18 24  1  0  0  0  0
M  END
