57
09/17/2025 12:09, XYZ structure generated by mol3D Class, molSimplify
Fe 	0.000000	0.000000	0.000000
C 	-2.405660	-2.038162	0.555943
N 	-1.459243	-1.459243	-0.388874
H 	-1.989234	-1.003069	-1.166610
H 	-0.869334	-2.222997	-0.792197
H 	-3.042433	-1.235952	0.984427
H 	-1.852458	-2.532035	1.382197
H 	-3.054410	-2.788302	0.052707
C 	-1.258220	2.895283	0.533474
N 	-1.459243	1.459243	0.388874
H 	-2.124237	1.285399	-0.399429
H 	-1.881771	1.083546	1.268819
H 	-0.816806	3.305559	-0.398967
H 	-0.559155	3.090971	1.373506
H 	-2.223623	3.408897	0.736031
C 	-0.452912	-0.358865	3.149042
N 	-0.775824	-0.775824	1.790585
H 	-1.801572	-0.650037	1.629715
H 	-0.544307	-1.789889	1.680792
H 	-0.702385	0.715211	3.278445
H 	0.633449	-0.495867	3.332586
H 	-1.025815	-0.957691	3.890675
C 	-1.936955	0.300074	-2.531509
N 	-0.775824	0.775824	-1.790585
H 	-0.929053	1.774549	-1.520531
H 	0.067218	0.724167	-2.407509
H 	-2.839423	0.358119	-1.887458
H 	-1.780812	-0.757896	-2.829766
H 	-2.100297	0.915154	-3.443555
C 	1.434387	-2.862323	-0.003909
N 	1.459243	-1.459243	0.388874
H 	2.305486	-1.004154	-0.024195
H 	1.524355	-1.397751	1.430968
H 	1.373093	-2.938707	-1.109815
H 	0.543107	-3.356779	0.436287
H 	2.351179	-3.385026	0.346955
C 	2.611748	1.344613	-1.273251
N 	1.459243	1.459243	-0.388874
H 	0.860023	2.253848	-0.710429
H 	1.792458	1.665768	0.580816
H 	2.268227	1.132878	-2.307554
H 	3.258822	0.508012	-0.935563
H 	3.203596	2.286178	-1.271687
C 	0.031289	-1.176538	-2.977441
N 	0.775824	-0.775824	-1.790585
H 	1.454674	-0.024099	-2.051224
H 	1.312827	-1.598153	-1.430884
H 	-0.536671	-0.307984	-3.371973
H 	-0.687365	-1.980351	-2.712750
H 	0.720535	-1.549702	-3.766441
C 	1.806277	1.795278	1.940288
N 	0.775824	0.775824	1.790585
H 	-0.100579	1.105432	2.256564
H 	1.093092	-0.101920	2.262697
H 	1.475711	2.734300	1.448776
H 	2.743893	1.451425	1.455229
H 	2.005654	1.997721	3.015507
