13
09/17/2025 12:07, XYZ structure generated by mol3D Class, molSimplify
Fe 	0.000000	0.000000	0.000000
N 	2.290000	0.000000	0.000000
H 	2.664393	0.974941	0.013634
H 	2.664203	-0.499240	0.837511
H 	2.664166	-0.475700	-0.851145
N 	-1.145000	1.983198	0.000000
H 	-2.175594	1.820497	0.047651
H 	-0.874698	2.571350	0.819578
H 	-0.946091	2.530088	-0.867229
N 	-1.145000	-1.983198	0.000000
H 	-0.490754	-2.793240	0.081609
H 	-1.813998	-2.029044	0.800646
H 	-1.691630	-2.099651	-0.882255
