19
09/17/2025 12:08, XYZ structure generated by mol3D Class, molSimplify
Fe 	0.000000	0.000000	0.000000
O 	-1.574334	-0.908943	1.090731
H 	-1.501069	-1.503740	1.879053
H 	-2.547927	-0.833950	0.926176
O 	1.574334	-0.908943	1.090731
H 	1.893158	-1.844446	1.029199
H 	2.155838	-0.493244	1.776029
O 	0.000000	1.817885	1.090731
H 	0.782710	2.326301	1.421608
H 	-0.782710	2.349078	1.383619
O 	-1.248259	-0.832173	-1.497911
H 	-1.875118	-1.593743	-1.410388
H 	-1.335253	-0.546504	-2.442057
O 	1.248259	-0.832173	-1.497911
H 	1.315447	-1.781175	-1.772652
H 	1.894924	-0.359072	-2.079793
O 	0.000000	1.500189	-1.497942
H 	-0.022217	1.376114	-2.480141
H 	0.022217	2.482191	-1.372385
