9
09/17/2025 12:07, XYZ structure generated by mol3D Class, molSimplify
Fe 	0.000000	0.000000	0.000000
C 	-1.739483	1.739483	0.000000
N 	-2.575919	2.575919	0.000000
C 	-1.739483	-1.739483	0.000000
N 	-2.575919	-2.575919	0.000000
C 	1.739483	-1.739483	0.000000
N 	2.575919	-2.575919	0.000000
C 	1.739483	1.739483	0.000000
N 	2.575919	2.575919	-0.000000
