13
09/17/2025 12:08, XYZ structure generated by mol3D Class, molSimplify
Fe 	0.000000	0.000000	0.000000
C 	-1.826822	-1.054717	1.265660
N 	-2.705256	-1.561881	1.874257
C 	1.826822	-1.054717	1.265660
N 	2.705256	-1.561881	1.874257
C 	-0.000000	2.109433	1.265660
N 	-0.000000	3.123761	1.874257
C 	-1.448452	-0.965634	-1.738142
N 	-2.144945	-1.429963	-2.573934
C 	1.448452	-0.965634	-1.738142
N 	2.144945	-1.429963	-2.573934
C 	0.000000	1.740786	-1.738179
N 	-0.000000	2.577849	-2.573988
