11
09/17/2025 12:08, XYZ structure generated by mol3D Class, molSimplify
Fe 	0.000000	0.000000	0.000000
C 	2.460000	-0.000000	0.000000
N 	3.642900	0.000000	0.000000
C 	-1.230000	2.130422	0.000000
N 	-1.821451	3.154844	0.000000
C 	-1.230000	-2.130422	0.000000
N 	-1.821451	-3.154844	0.000000
C 	0.000000	0.000000	2.460000
N 	0.000000	0.000000	3.642900
C 	0.000000	-0.000000	-2.460000
N 	0.000000	0.000000	-3.642900
