29
09/17/2025 12:07, XYZ structure generated by mol3D Class, molSimplify
Fe 	0.000000	0.000000	0.000000
C 	2.984963	1.009307	0.567161
N 	2.100000	0.000000	0.000000
H 	2.295314	-0.920500	0.456499
H 	2.295489	-0.088806	-1.023660
H 	2.790659	1.105898	1.655984
H 	2.790733	1.989508	0.083303
H 	4.050208	0.730753	0.410658
C 	-2.079190	2.430900	-0.134413
N 	-0.700043	1.979884	0.000000
H 	-0.316022	2.322828	0.910372
H 	-0.130196	2.388717	-0.775959
H 	-2.691481	2.008316	0.689689
H 	-2.493948	2.078238	-1.102010
H 	-2.135100	3.541003	-0.097296
C 	-1.308058	-2.312291	1.786804
N 	-0.700041	-0.989930	1.714637
H 	0.158089	-0.975795	2.312360
H 	-1.375435	-0.283094	2.086402
H 	-0.595660	-3.071574	1.401319
H 	-2.224956	-2.335486	1.161184
H 	-1.576758	-2.564641	2.836067
C 	0.089110	-1.482466	-2.836323
N 	-0.700041	-0.989930	-1.714637
H 	-1.214373	-1.790947	-1.281400
H 	-1.400141	-0.297768	-2.067843
H 	0.830859	-2.224316	-2.472886
H 	0.633462	-0.637775	-3.308360
H 	-0.565190	-1.963837	-3.595932
