56
09/17/2025 12:08, XYZ structure generated by mol3D Class, molSimplify
Fe 	0.000000	0.000000	0.000000
C 	4.897098	0.000069	-0.000565
C 	4.194231	-0.634214	-1.019887
C 	2.809343	-0.605525	-0.977096
N 	2.100000	-0.000000	0.000000
C 	2.809849	0.605525	0.977096
C 	4.194769	0.633726	1.018871
H 	5.983290	0.000035	-0.001030
H 	4.711882	-1.138071	-1.827790
H 	2.215684	-1.083332	-1.751146
H 	2.216713	1.082940	1.751465
H 	4.712938	1.137377	1.827156
C 	-2.449004	4.240749	0.000222
C 	-3.097541	3.054715	-0.328527
C 	-2.362626	1.879887	-0.312744
N 	-1.050000	1.818653	0.000000
C 	-0.446971	2.986475	0.312744
C 	-1.097923	4.209816	0.328338
H 	-2.992495	5.181190	0.000317
H 	-4.149203	3.045269	-0.590177
H 	-2.824232	0.927880	-0.558685
H 	0.608205	2.910787	0.558220
H 	-0.563902	5.116463	0.589685
C 	-2.448575	-4.240996	0.000568
C 	-1.487597	-3.984217	0.973162
C 	-0.822523	-2.769066	0.932476
N 	-1.050000	-1.818653	0.000000
C 	-1.987074	-2.097296	-0.932476
C 	-2.706422	-3.281148	-0.972182
H 	-2.991614	-5.181699	0.001029
H 	-1.262326	-4.712009	1.743950
H 	-0.066146	-2.520262	1.671311
H 	-2.149733	-1.318490	-1.671656
H 	-3.449448	-3.450492	-1.743366
C 	0.000559	0.000108	4.897098
C 	1.061643	-0.561525	4.194231
C 	1.016955	-0.535891	2.809343
N 	0.000000	0.000000	2.100000
C 	-1.016955	0.535891	2.809849
C 	-1.060595	0.561110	4.194769
H 	0.001025	0.000107	5.983290
H 	1.902725	-1.007799	4.711882
H 	1.822450	-0.958540	2.215684
H 	-1.822740	0.958126	2.216713
H 	-1.902044	1.007151	4.712938
C 	0.000275	0.000498	-4.897098
C 	-0.205977	1.183203	-4.194231
C 	-0.195406	1.132781	-2.809343
N 	0.000000	-0.000000	-2.100000
C 	0.195406	-1.132781	-2.809849
C 	0.205905	-1.182078	-4.194769
H 	0.000418	0.000942	-5.983290
H 	-0.370499	2.121026	-4.711882
H 	-0.348458	2.029458	-2.215684
H 	0.347975	-2.029606	-2.216713
H 	0.370094	-2.120178	-4.712938
